OPT_V10/Two_days_MYC3/powerflow_results_t29.txt
Pandapower Network Debug Info
==================================================

BUS:
       vm_pu  va_degree      p_mw    q_mvar
0   0.992675   0.124705  0.001153  0.001137
1   0.988586   0.214701  0.001284  0.001926
2   0.984886   0.304161  0.001690  0.002998
3   0.988312   0.192609  0.003172  0.004215
4   0.999886   0.001359  0.008685  0.010333
5   0.999873   0.001494  0.010717  0.010272
6   0.999863   0.001631  0.010255  0.012882
7   0.999929   0.000900  0.000000  0.000000
8   0.999929   0.000906  0.000000  0.000000
9   1.000000   0.000000 -0.037107 -0.048866
10  1.000000   0.000007  0.000000  0.000000
--------------------------------------------------

LINE:
   p_from_mw  q_from_mvar   p_to_mw  q_to_mvar         pl_mw       ql_mvar  i_from_ka   i_to_ka      i_ka  vm_from_pu  va_from_degree  vm_to_pu  va_to_degree  loading_percent
0   0.037097     0.044866 -0.037094  -0.044863  3.315011e-06  2.584769e-06   0.002241  0.002241  0.002241    1.000000        0.000007  0.999929      0.000900         0.974235
1   0.029659     0.033489 -0.029658  -0.033488  1.547705e-06  1.206771e-06   0.001722  0.001722  0.001722    0.999929        0.000900  0.999886      0.001359         0.748678
2   0.007424     0.010374 -0.007348  -0.010315  7.613070e-05  5.936036e-05   0.018415  0.018415  0.018415    0.999929        0.000906  0.992675      0.124705         8.006417
3  -0.020972    -0.023155  0.020973   0.023155  3.376004e-07  2.632326e-07   0.001203  0.001203  0.001203    0.999873        0.001494  0.999886      0.001359         0.522872
4  -0.010255    -0.012882  0.010255   0.012882  1.326335e-07  1.034166e-07   0.000634  0.000634  0.000634    0.999863        0.001631  0.999873      0.001494         0.275590
5  -0.002985    -0.004933  0.003005   0.004948  2.012114e-05  1.568878e-05   0.008417  0.008417  0.008417    0.988586        0.214701  0.992675      0.124705         3.659777
6  -0.003172    -0.004215  0.003191   0.004229  1.901871e-05  1.482920e-05   0.007703  0.007703  0.007703    0.988312        0.192609  0.992675      0.124705         3.349318
7  -0.001690    -0.002998  0.001701   0.003007  1.104342e-05  8.610736e-06   0.005043  0.005043  0.005043    0.984886        0.304161  0.988586      0.214701         2.192686
--------------------------------------------------

TRAFO:
    p_hv_mw  q_hv_mvar   p_lv_mw  q_lv_mvar    pl_mw  ql_mvar   i_hv_ka   i_lv_ka  vm_hv_pu  va_hv_degree  vm_lv_pu  va_lv_degree  loading_percent
0  0.007434   0.011374 -0.007424  -0.010374  0.00001    0.001  0.000523  0.018415  0.999929        0.0009  0.999929      0.000906         0.135892
1  0.037107   0.048866 -0.037097  -0.044866  0.00001    0.004  0.000506  0.002241  1.000000        0.0000  1.000000      0.000007         0.153395
--------------------------------------------------
